OPT_V8/My_Campus_24/powerflow_results_t10.txt
Pandapower Network Debug Info
==================================================

BUS:
       vm_pu  va_degree      p_mw    q_mvar
0   0.997239   0.319889 -0.001160  0.000872
1   0.995598   0.536607 -0.001060  0.002000
2   0.993559   0.721077 -0.000318  0.003273
3   0.994938   0.463568  0.000323  0.003978
4   0.993467   0.387868  0.000591  0.004781
5   0.995124   0.370841  0.000646  0.006986
6   0.995199   0.457661 -0.000890  0.001030
7   0.998872   0.080774 -0.000078  0.001914
8   0.998770   0.084274 -0.000733  0.003223
9   0.999909   0.001940  0.007959  0.008788
10  0.999898   0.002129  0.008847  0.010315
11  0.999890   0.002300  0.007241  0.011746
12  0.999825   0.004214  0.007168  0.006360
13  0.999801   0.004592  0.007263  0.011689
14  0.999809   0.004423  0.012205  0.010626
15  0.999946   0.001404  0.000000  0.000000
16  0.999946   0.001410  0.000000  0.000000
17  0.999829   0.004199  0.000000  0.000000
18  0.999829   0.004210  0.000000  0.000000
19  1.000000   0.000000 -0.021944 -0.046045
20  1.000000   0.000006  0.000000  0.000000
21  1.000000   0.000000 -0.026295 -0.051690
22  1.000000   0.000007  0.000000  0.000000
--------------------------------------------------

LINE:
    p_from_mw  q_from_mvar   p_to_mw  q_to_mvar         pl_mw       ql_mvar  i_from_ka   i_to_ka      i_ka  vm_from_pu  va_from_degree  vm_to_pu  va_to_degree  loading_percent
0    0.021934     0.042045 -0.021932  -0.042043  2.199723e-06  1.715161e-06   0.001825  0.001825  0.001825    1.000000        0.000006  0.999946      0.001404         0.793607
1    0.026285     0.047690 -0.026277  -0.047684  7.976118e-06  6.219110e-06   0.002096  0.002096  0.002096    1.000000        0.000007  0.999829      0.004199         0.911278
2    0.024049     0.030851 -0.024047  -0.030850  1.183344e-06  9.226731e-07   0.001506  0.001506  0.001506    0.999946        0.001404  0.999909      0.001940         0.654646
3    0.007168     0.006360 -0.007168  -0.006360  3.176713e-08  2.476935e-08   0.000369  0.000369  0.000369    0.999829        0.004199  0.999825      0.004214         0.160392
4    0.019469     0.022316 -0.019469  -0.022316  4.797232e-07  3.740481e-07   0.001140  0.001140  0.001140    0.999829        0.004199  0.999809      0.004423         0.495683
5   -0.002127     0.010193  0.002177  -0.010153  5.071109e-05  3.954027e-05   0.015029  0.015029  0.015029    0.999946        0.001410  0.997239      0.319889         6.534461
6   -0.000192     0.008057  0.000242  -0.008017  5.040499e-05  3.930160e-05   0.011634  0.011634  0.011634    0.999829        0.004210  0.995124      0.370841         5.058346
7   -0.000076     0.001916  0.000078  -0.001914  2.485920e-06  1.938313e-06   0.002769  0.002769  0.002769    0.999829        0.004210  0.998872      0.080774         1.203782
8   -0.000103     0.008036  0.000114  -0.008027  1.110789e-05  8.661001e-06   0.011601  0.011601  0.011601    0.999829        0.004210  0.998770      0.084274         5.044080
9   -0.016088    -0.022062  0.016088   0.022062  2.578830e-07  2.010756e-07   0.001051  0.001051  0.001051    0.999898        0.002129  0.999909      0.001940         0.456988
10  -0.007241    -0.011746  0.007241   0.011747  9.314721e-08  7.262841e-08   0.000531  0.000531  0.000531    0.999890        0.002300  0.999898      0.002129         0.230952
11   0.007263     0.011689 -0.007263  -0.011689  9.266515e-08  7.225255e-08   0.000530  0.000530  0.000530    0.999809        0.004423  0.999801      0.004592         0.230353
12   0.001368    -0.005281 -0.001350   0.005295  1.776190e-05  1.384925e-05   0.007909  0.007909  0.007909    0.995598        0.536607  0.997239      0.319889         3.438532
13  -0.000323    -0.003978  0.000334   0.003986  1.074445e-05  8.377621e-06   0.005790  0.005790  0.005790    0.994938        0.463568  0.997239      0.319889         2.517433
14   0.000318    -0.003273 -0.000308   0.003281  9.908454e-06  7.725785e-06   0.004777  0.004777  0.004777    0.993559        0.721077  0.995598      0.536607         2.076958
15   0.000619     0.004804 -0.000591  -0.004781  2.861528e-05  2.231181e-05   0.007000  0.007000  0.007000    0.998770        0.084274  0.993467      0.387868         3.043331
16   0.000890    -0.001030 -0.000888   0.001031  1.628338e-06  1.269642e-06   0.001974  0.001974  0.001974    0.995199        0.457661  0.995124      0.370841         0.858240
--------------------------------------------------

TRAFO:
    p_hv_mw  q_hv_mvar   p_lv_mw  q_lv_mvar    pl_mw  ql_mvar   i_hv_ka   i_lv_ka  vm_hv_pu  va_hv_degree  vm_lv_pu  va_lv_degree  loading_percent
0 -0.002117   0.011192  0.002127  -0.010193  0.00001    0.001  0.000438  0.015029  0.999946      0.001404  0.999946      0.001410         0.113914
1 -0.000360   0.019008  0.000370  -0.018009  0.00001    0.001  0.000732  0.026003  0.999829      0.004199  0.999829      0.004210         0.190151
2  0.021944   0.046045 -0.021934  -0.042045  0.00001    0.004  0.000421  0.001825  1.000000      0.000000  1.000000      0.000006         0.127517
3  0.026295   0.051690 -0.026285  -0.047690  0.00001    0.004  0.000478  0.002096  1.000000      0.000000  1.000000      0.000007         0.144985
--------------------------------------------------
